[globalOptions]
outputDir    = {outputDir}
inputDir     = {inputDir}

cloneMap     = ../domain_Rhine_30min.map
landmask     = ../domain_Rhine_30min.map

startTime   = 2000-01-01
endTime     = 2000-01-02

maxSpinUpsInYears    = 0
spinUpOutputDir      = True
minConvForSoilSto    = 0.0
minConvForGwatSto    = 0.0
minConvForChanSto    = 0.0
minConvForTotlSto    = 0.0

institution  = Department of Physical Geography, Utrecht University
title        = PCR-GLOBWB 2 output (not coupled to MODFLOW)
description  = for testing purposes

[meteoOptions]
precipitationNC = global_30min/meteo/forcing/daily_precipitation_cru_era-interim_2000_to_2010.nc
temperatureNC   = global_30min/meteo/forcing/daily_temperature_cru_era-interim_2000_to_2010.nc
referenceETPotMethod = Input
refETPotFileNC  = global_30min/meteo/forcing/daily_referencePotET_cru_era-interim_2000_to_2010.nc

[landSurfaceOptions]
debugWaterBalance = True

numberOfUpperSoilLayers = 2
topographyNC     = global_30min/landSurface/topography/topography_parameters_30_arcmin_october_2015.nc
soilPropertiesNC = global_30min/landSurface/soil/soilProperties.nc

includeIrrigation = True
includeDomesticWaterDemand  = True
includeIndustryWaterDemand  = True
includeLivestockWaterDemand = True

historicalIrrigationArea = global_30min/waterUse/irrigation/irrigated_areas/irrigationArea30ArcMin.nc
irrigationEfficiency     = global_30min/waterUse/irrigation/irrigation_efficiency/efficiency.map

domesticWaterDemandFile  = global_30min/waterUse/waterDemand/domestic_water_demand_version_october_2014.nc
industryWaterDemandFile  = global_30min/waterUse/waterDemand/industrial_water_demand_version_october_2014.nc
livestockWaterDemandFile = global_30min/waterUse/waterDemand/livestock_water_demand_1960-2012.nc

desalinationWater = global_30min/waterUse/desalination/desalination_water_use_version_october_2014.nc
allocationSegmentsForGroundSurfaceWater = global_30min/waterUse/abstraction_zones/abstraction_zones_60min_30min.map
irrigationSurfaceWaterAbstractionFractionData           = global_30min/waterUse/source_partitioning/surface_water_fraction_for_irrigation/AEI_SWFRAC.map
irrigationSurfaceWaterAbstractionFractionDataQuality    = global_30min/waterUse/source_partitioning/surface_water_fraction_for_irrigation/AEI_QUAL.map
treshold_to_maximize_irrigation_surface_water           = 0.50
treshold_to_minimize_fossil_groundwater_irrigation      = 0.70
maximumNonIrrigationSurfaceWaterAbstractionFractionData = global_30min/waterUse/source_partitioning/surface_water_fraction_for_non_irrigation/max_city_sw_fraction.map

[forestOptions]
name = forest
debugWaterBalance = True

snowModuleType      =  Simple
freezingT           =  0.0
degreeDayFactor     =  0.0025
snowWaterHoldingCap =  0.1
refreezingCoeff     =  0.05
minTopWaterLayer = 0.0
minCropKC        = 0.2

cropCoefficientNC = global_30min/landSurface/landCover/naturalTall/Global_CropCoefficientKc-Forest_30min.nc
interceptCapNC    = global_30min/landSurface/landCover/naturalTall/interceptCapInputForest366days.nc
coverFractionNC   = global_30min/landSurface/landCover/naturalTall/coverFractionInputForest366days.nc
landCoverMapsNC   = global_30min/landSurface/landCover/naturalTall/forestProperties.nc

interceptStorIni = 0.0
snowCoverSWEIni  = 0.0
snowFreeWaterIni = 0.0
topWaterLayerIni = 0.0
storUppIni       = 0.0
storLowIni       = 0.0
interflowIni     = 0.0

[grasslandOptions]
name = grassland
debugWaterBalance = True

snowModuleType      =  Simple
freezingT           =  0.0
degreeDayFactor     =  0.0025
snowWaterHoldingCap =  0.1
refreezingCoeff     =  0.05
minTopWaterLayer = 0.0
minCropKC        = 0.2

cropCoefficientNC = global_30min/landSurface/landCover/naturalShort/Global_CropCoefficientKc-Grassland_30min.nc
interceptCapNC    = global_30min/landSurface/landCover/naturalShort/interceptCapInputGrassland366days.nc
coverFractionNC   = global_30min/landSurface/landCover/naturalShort/coverFractionInputGrassland366days.nc
landCoverMapsNC   = global_30min/landSurface/landCover/naturalShort/grasslandProperties.nc

interceptStorIni = 0.0
snowCoverSWEIni  = 0.0
snowFreeWaterIni = 0.0
topWaterLayerIni = 0.0
storUppIni       = 0.0
storLowIni       = 0.0
interflowIni     = 0.0

[irrPaddyOptions]
name = irrPaddy
debugWaterBalance = True

snowModuleType      =  Simple
freezingT           =  0.0
degreeDayFactor     =  0.0025
snowWaterHoldingCap =  0.1
refreezingCoeff     =  0.05
minTopWaterLayer = 0.05
minCropKC        = 0.2

cropCoefficientNC = global_30min/landSurface/landCover/irrPaddy/Global_CropCoefficientKc-IrrPaddy_30min.nc
landCoverMapsNC  = global_30min/landSurface/landCover/irrPaddy/paddyProperties.nc
cropDeplFactor   = 0.2
minInterceptCap  = 0.0002

interceptStorIni = 0.0
snowCoverSWEIni  = 0.0
snowFreeWaterIni = 0.0
topWaterLayerIni = 0.0
storUppIni       = 0.0
storLowIni       = 0.0
interflowIni     = 0.0

[irrNonPaddyOptions]
name = irrNonPaddy
debugWaterBalance = True

snowModuleType      =  Simple
freezingT           =  0.0
degreeDayFactor     =  0.0025
snowWaterHoldingCap =  0.1
refreezingCoeff     =  0.05
minTopWaterLayer = 0.0
minCropKC        = 0.2

cropCoefficientNC = global_30min/landSurface/landCover/irrNonPaddy/Global_CropCoefficientKc-IrrNonPaddy_30min.nc
landCoverMapsNC  = global_30min/landSurface/landCover/irrNonPaddy/nonPaddyProperties.nc
cropDeplFactor   = 0.5
minInterceptCap  = 0.0002

interceptStorIni = 0.0
snowCoverSWEIni  = 0.0
snowFreeWaterIni = 0.0
topWaterLayerIni = 0.0
storUppIni       = 0.0
storLowIni       = 0.0
interflowIni     = 0.0

[groundwaterOptions]
debugWaterBalance = True

groundwaterPropertiesNC = global_30min/groundwater/properties/groundwaterProperties.nc
minRecessionCoeff = 1.0e-4

limitFossilGroundWaterAbstraction      = True
estimateOfRenewableGroundwaterCapacity = 0.0
estimateOfTotalGroundwaterThickness    = global_30min/groundwater/aquifer_thickness_estimate/thickness_30min.map
minimumTotalGroundwaterThickness       = 100.
maximumTotalGroundwaterThickness       = None

pumpingCapacityNC = global_30min/waterUse/groundwater_pumping_capacity/regional_abstraction_limit.nc
allocationSegmentsForGroundwater = global_30min/waterUse/abstraction_zones/abstraction_zones_30min_30min.map
minTransimissivityForProductiveAquifer    = 50.0

storGroundwaterIni                        = 0.0
storGroundwaterFossilIni                  = 0.0
avgNonFossilGroundwaterAllocationLongIni  = 0.0
avgNonFossilGroundwaterAllocationShortIni = 0.0
avgTotalGroundwaterAbstractionIni         = 0.0
avgTotalGroundwaterAllocationLongIni      = 0.0
avgTotalGroundwaterAllocationShortIni     = 0.0
relativeGroundwaterHeadIni                = 0.0
baseflowIni                               = 0.0

[routingOptions]
debugWaterBalance = True

lddMap      = global_30min/routing/ldd_and_cell_area/lddsound_30min.map
cellAreaMap = global_30min/routing/ldd_and_cell_area/cellarea30min.map

routingMethod = accuTravelTime
manningsN   = 0.04

gradient             = global_30min/routing/channel_properties/channel_gradient.map
constantChannelDepth = global_30min/routing/channel_properties/bankfull_depth.map
constantChannelWidth = global_30min/routing/channel_properties/bankfull_width.map
minimumChannelWidth  = global_30min/routing/channel_properties/bankfull_width.map
bankfullCapacity     = None

dynamicFloodPlain = False

cropCoefficientWaterNC = global_30min/routing/kc_surface_water/cropCoefficientForOpenWater.nc
minCropWaterKC         = 1.00

waterBodyInputNC       = global_30min/routing/surface_water_bodies/waterBodies30min.nc
onlyNaturalWaterBodies = False

waterBodyStorageIni            = 0.0
channelStorageIni              = 0.0
readAvlChannelStorageIni       = 0.0
avgDischargeLongIni            = 0.0
avgDischargeShortIni           = 0.0
m2tDischargeLongIni            = 0.0
avgBaseflowLongIni             = 0.0
riverbedExchangeIni            = 0.0
subDischargeIni                = 0.0
avgLakeReservoirInflowShortIni = 0.0
avgLakeReservoirOutflowLongIni = 0.0
timestepsToAvgDischargeIni     = 0.0

[reportingOptions]
outDailyTotNC = discharge,runoff,baseflow,directRunoff,interflowTotal,waterBodyActEvaporation,interceptEvap,actSnowFreeWaterEvap,topWaterLayerEvap,actBareSoilEvap,actTranspiUppTotal,actTranspiLowTotal,gwRecharge,interceptStor,snowFreeWater,snowCoverSWE,topWaterLayer,storUppTotal,storLowTotal,storGroundwater,storGroundwaterFossil,surfaceWaterStorage,channelStorage,waterBodyStorage
formatNetCDF = NETCDF4
zlib = True
